goiania_leste_dss/TR4/CTMT_5008497.dss
! ==============================================================================
! ALIMENTADOR CTMT_5008497 - GOIANIA LESTE-24
! Subestacao: Trafo TR4 (GOL-S-TRF-TR4) | Barra MT: 6440 -> PAC_INI: 95463855008497
! ==============================================================================

! 1. Disjuntor de Saida MT do Alimentador
new line.DJ_5008497 phases=3 bus1=6440 bus2=95463855008497 switch=y r1=1e-4 x1=1e-4 length=0.001 units=km

! 2. Linhas de Media Tensao (MT)
new line.52874777 phases=3 bus1=80445395008497.1.2.3 bus2=94979105008497.1.2.3 r1=0.195 x1=0.4 length=0.004939 units=km normamps=419.0
new line.52880065 phases=3 bus1=80480075008497.1.2.3 bus2=80480085008497.1.2.3 r1=0.236 x1=0.27 length=0.036951 units=km normamps=456.0
new line.52880066 phases=3 bus1=80480095008497.1.2.3 bus2=80480085008497.1.2.3 r1=0.236 x1=0.27 length=0.033944 units=km normamps=456.0
new line.52880067 phases=3 bus1=80480075008497.1.2.3 bus2=80480105008497.1.2.3 r1=0.236 x1=0.27 length=0.036019 units=km normamps=456.0
new line.52880100 phases=3 bus1=80480835008497.1.2.3 bus2=80480845008497.1.2.3 r1=0.195 x1=0.4 length=0.013855 units=km normamps=419.0
new line.52880101 phases=3 bus1=80480845008497.1.2.3 bus2=80480855008497.1.2.3 r1=0.236 x1=0.27 length=0.030558 units=km normamps=456.0
new line.52880102 phases=3 bus1=80480855008497.1.2.3 bus2=80480865008497B.1.2.3 r1=0.195 x1=0.4 length=0.027299 units=km normamps=419.0
new line.52880110 phases=3 bus1=80480855008497.1.2.3 bus2=80480875008497.1.2.3 r1=0.236 x1=0.27 length=0.016612 units=km normamps=456.0
new line.52880111 phases=3 bus1=80480865008497.1.2.3 bus2=80480885008497.1.2.3 r1=0.195 x1=0.4 length=0.037104 units=km normamps=419.0
new line.52880112 phases=3 bus1=80480885008497.1.2.3 bus2=80480915008497.1.2.3 r1=0.195 x1=0.4 length=0.034588 units=km normamps=419.0
new line.52880113 phases=3 bus1=80480915008497.1.2.3 bus2=80480925008497.1.2.3 r1=0.195 x1=0.4 length=0.027533 units=km normamps=419.0
new line.52880114 phases=3 bus1=80480925008497.1.2.3 bus2=80480945008497.1.2.3 r1=0.195 x1=0.4 length=0.024732 units=km normamps=419.0
new line.52880115 phases=3 bus1=80480945008497.1.2.3 bus2=80480965008497.1.2.3 r1=0.195 x1=0.4 length=0.026655 units=km normamps=419.0
new line.52880119 phases=3 bus1=80481025008497.1.2.3 bus2=80481035008497.1.2.3 r1=0.975 x1=0.47 length=0.027435 units=km normamps=152.0
new line.52880120 phases=3 bus1=80481045008497.1.2.3 bus2=80480835008497B.1.2.3 r1=0.195 x1=0.4 length=0.031974 units=km normamps=419.0
new line.52880121 phases=3 bus1=80480095008497.1.2.3 bus2=97204585008497.1.2.3 r1=0.236 x1=0.27 length=0.022741 units=km normamps=456.0
new line.52880125 phases=3 bus1=80481055008497B.1.2.3 bus2=80481085008497.1.2.3 r1=0.236 x1=0.27 length=0.042724 units=km normamps=456.0
new line.52880126 phases=3 bus1=80481085008497.1.2.3 bus2=80481025008497.1.2.3 r1=0.975 x1=0.47 length=0.035786 units=km normamps=152.0
new line.52880224 phases=3 bus1=80480915008497.1.2.3 bus2=80483105008497.1.2.3 r1=0.195 x1=0.4 length=0.011248 units=km normamps=419.0
new line.52885693 phases=3 bus1=80526185008497B.1.2.3 bus2=80526395008497.1.2.3 r1=0.195 x1=0.4 length=0.019034 units=km normamps=419.0
new line.52886100 phases=3 bus1=80526395008497.1.2.3 bus2=91088705008497.1.2.3 r1=0.195 x1=0.4 length=0.005255 units=km normamps=419.0
new line.52888662 phases=3 bus1=80547285008497.1.2.3 bus2=80547185008497.1.2.3 r1=0.236 x1=0.27 length=0.022333 units=km normamps=456.0
new line.52888663 phases=3 bus1=80547295008497.1.2.3 bus2=80547285008497.1.2.3 r1=0.236 x1=0.27 length=0.016864 units=km normamps=456.0
new line.52888664 phases=3 bus1=80547305008497.1.2.3 bus2=80547295008497.1.2.3 r1=0.236 x1=0.27 length=0.016499 units=km normamps=456.0
new line.52888665 phases=3 bus1=80547315008497.1.2.3 bus2=80547295008497.1.2.3 r1=0.613 x1=0.45 length=0.00736 units=km normamps=203.0
new line.52888667 phases=3 bus1=80545985008497.1.2.3 bus2=80547455008497.1.2.3 r1=0.195 x1=0.4 length=0.034188 units=km normamps=419.0
new line.52888668 phases=3 bus1=80547455008497.1.2.3 bus2=80547465008497.1.2.3 r1=0.195 x1=0.4 length=0.031043 units=km normamps=419.0
new line.52888669 phases=3 bus1=80547465008497.1.2.3 bus2=80547525008497.1.2.3 r1=0.195 x1=0.4 length=0.031061 units=km normamps=419.0
new line.52888670 phases=3 bus1=80547525008497.1.2.3 bus2=80547535008497.1.2.3 r1=0.195 x1=0.4 length=0.025918 units=km normamps=419.0
new line.52888671 phases=3 bus1=80547545008497.1.2.3 bus2=80547565008497.1.2.3 r1=0.195 x1=0.4 length=0.030347 units=km normamps=419.0
new line.52888672 phases=3 bus1=80547565008497.1.2.3 bus2=80547575008497.1.2.3 r1=0.195 x1=0.4 length=0.027767 units=km normamps=419.0
new line.52888673 phases=3 bus1=80547565008497B.1.2.3 bus2=80547595008497.1.2.3 r1=1.551 x1=0.49 length=0.021709 units=km normamps=114.0
new line.52888674 phases=3 bus1=80547605008497.1.2.3 bus2=80547595008497.1.2.3 r1=1.551 x1=0.49 length=0.005932 units=km normamps=114.0
new line.52888675 phases=3 bus1=80547525008497B.1.2.3 bus2=80547645008497.1.2.3 r1=0.975 x1=0.47 length=0.019291 units=km normamps=152.0
new line.52888676 phases=3 bus1=80547465008497B.1.2.3 bus2=80547675008497.1.2.3 r1=0.975 x1=0.47 length=0.03784 units=km normamps=152.0
new line.52888677 phases=3 bus1=80547685008497.1.2.3 bus2=80547675008497.1.2.3 r1=0.975 x1=0.47 length=0.00636 units=km normamps=152.0
new line.52888678 phases=3 bus1=80547535008497.1.2.3 bus2=80547695008497.1.2.3 r1=0.195 x1=0.4 length=0.018429 units=km normamps=419.0
new line.52888679 phases=3 bus1=80547695008497.1.2.3 bus2=80547545008497.1.2.3 r1=0.195 x1=0.4 length=0.012821 units=km normamps=419.0
new line.52888680 phases=3 bus1=80547625008497.1.2.3 bus2=80547695008497.1.2.3 r1=1.551 x1=0.49 length=0.032923 units=km normamps=114.0
new line.52888681 phases=3 bus1=80547705008497.1.2.3 bus2=80547545008497.1.2.3 r1=0.195 x1=0.4 length=0.008654 units=km normamps=419.0
new line.52888682 phases=3 bus1=80547695008497.1.2.3 bus2=80547555008497.1.2.3 r1=1.551 x1=0.49 length=0.011422 units=km normamps=114.0
new line.52888683 phases=3 bus1=80547715008497.1.2.3 bus2=80547555008497.1.2.3 r1=1.551 x1=0.49 length=0.007209 units=km normamps=114.0
new line.52888692 phases=3 bus1=80547725008497.1.2.3 bus2=80545425008497B.1.2.3 r1=1.551 x1=0.49 length=0.017887 units=km normamps=114.0
new line.52888696 phases=3 bus1=80544945008497.1.2.3 bus2=80544935008497.1.2.3 r1=0.195 x1=0.4 length=0.016741 units=km normamps=419.0
new line.52888697 phases=3 bus1=80544955008497.1.2.3 bus2=80544945008497.1.2.3 r1=0.195 x1=0.4 length=0.00477 units=km normamps=419.0
new line.52888698 phases=3 bus1=80544965008497.1.2.3 bus2=80544945008497.1.2.3 r1=0.195 x1=0.4 length=0.013585 units=km normamps=419.0
new line.52888699 phases=3 bus1=80544975008497.1.2.3 bus2=80544965008497.1.2.3 r1=0.195 x1=0.4 length=0.026993 units=km normamps=419.0
new line.52888700 phases=3 bus1=80544985008497.1.2.3 bus2=80544975008497.1.2.3 r1=0.195 x1=0.4 length=0.003299 units=km normamps=419.0
new line.52888703 phases=3 bus1=80545015008497.1.2.3 bus2=80545005008497.1.2.3 r1=0.195 x1=0.4 length=0.015243 units=km normamps=419.0
new line.52888704 phases=3 bus1=80545025008497.1.2.3 bus2=80545015008497.1.2.3 r1=0.195 x1=0.4 length=0.024404 units=km normamps=419.0
new line.52888705 phases=3 bus1=80545035008497.1.2.3 bus2=80545025008497.1.2.3 r1=0.195 x1=0.4 length=0.031916 units=km normamps=419.0
new line.52888706 phases=3 bus1=80544285008497.1.2.3 bus2=80545035008497.1.2.3 r1=0.195 x1=0.4 length=0.032094 units=km normamps=419.0
new line.52888707 phases=3 bus1=80526185008497.1.2.3 bus2=80545435008497.1.2.3 r1=0.195 x1=0.4 length=0.034591 units=km normamps=419.0
new line.52888708 phases=3 bus1=80544565008497.1.2.3 bus2=80545435008497.1.2.3 r1=0.195 x1=0.4 length=0.017879 units=km normamps=419.0
new line.52888709 phases=3 bus1=80545425008497.1.2.3 bus2=80545435008497.1.2.3 r1=0.613 x1=0.45 length=0.026176 units=km normamps=203.0
new line.52888710 phases=3 bus1=80545445008497.1.2.3 bus2=80545435008497.1.2.3 r1=0.613 x1=0.45 length=0.036819 units=km normamps=203.0
new line.52888711 phases=3 bus1=80545455008497.1.2.3 bus2=80545445008497B.1.2.3 r1=0.613 x1=0.45 length=0.022196 units=km normamps=203.0
new line.52888712 phases=3 bus1=80545465008497.1.2.3 bus2=80545455008497.1.2.3 r1=0.613 x1=0.45 length=0.015363 units=km normamps=203.0
new line.52888713 phases=3 bus1=80545465008497.1.2.3 bus2=80545475008497.1.2.3 r1=0.613 x1=0.45 length=0.041077 units=km normamps=203.0
new line.52888716 phases=3 bus1=80545475008497.1.2.3 bus2=94031325008497.1.2.3 r1=0.975 x1=0.47 length=0.014043 units=km normamps=152.0
new line.52888717 phases=3 bus1=80545505008497.1.2.3 bus2=80545515008497.1.2.3 r1=0.975 x1=0.47 length=0.025963 units=km normamps=152.0
new line.52888718 phases=3 bus1=80545515008497.1.2.3 bus2=80545525008497.1.2.3 r1=0.975 x1=0.47 length=0.008588 units=km normamps=152.0
new line.52888719 phases=3 bus1=80545535008497.1.2.3 bus2=80545525008497.1.2.3 r1=0.975 x1=0.47 length=0.008329 units=km normamps=152.0
new line.52888720 phases=3 bus1=80544295008497.1.2.3 bus2=80544285008497.1.2.3 r1=0.195 x1=0.4 length=0.029102 units=km normamps=419.0
new line.52888721 phases=3 bus1=80544305008497.1.2.3 bus2=80544295008497.1.2.3 r1=0.195 x1=0.4 length=0.008155 units=km normamps=419.0
new line.52888722 phases=3 bus1=80544315008497.1.2.3 bus2=80544295008497.1.2.3 r1=0.195 x1=0.4 length=0.01746 units=km normamps=419.0
new line.52888723 phases=3 bus1=80544325008497.1.2.3 bus2=80544315008497.1.2.3 r1=0.195 x1=0.4 length=0.015012 units=km normamps=419.0
new line.52888724 phases=3 bus1=80544335008497.1.2.3 bus2=80544315008497.1.2.3 r1=0.195 x1=0.4 length=0.014641 units=km normamps=419.0
new line.52888725 phases=3 bus1=80544345008497B.1.2.3 bus2=80544335008497.1.2.3 r1=0.195 x1=0.4 length=0.02607 units=km normamps=419.0
new line.52888726 phases=3 bus1=80544355008497.1.2.3 bus2=80544345008497.1.2.3 r1=0.195 x1=0.4 length=0.009146 units=km normamps=419.0
new line.52888727 phases=3 bus1=80544365008497.1.2.3 bus2=80544355008497.1.2.3 r1=0.195 x1=0.4 length=0.017593 units=km normamps=419.0
new line.52888728 phases=3 bus1=80544375008497.1.2.3 bus2=80544365008497.1.2.3 r1=0.195 x1=0.4 length=0.010071 units=km normamps=419.0
new line.52888729 phases=3 bus1=80544965008497.1.2.3 bus2=80544385008497.1.2.3 r1=1.551 x1=0.49 length=0.04217 units=km normamps=114.0
new line.52888730 phases=3 bus1=80544385008497.1.2.3 bus2=80544395008497.1.2.3 r1=1.551 x1=0.49 length=0.032029 units=km normamps=114.0
new line.52888732 phases=3 bus1=80544435008497.1.2.3 bus2=80544425008497.1.2.3 r1=0.975 x1=0.47 length=0.021162 units=km normamps=152.0
new line.52888733 phases=3 bus1=80544445008497.1.2.3 bus2=80544435008497.1.2.3 r1=0.975 x1=0.47 length=0.003536 units=km normamps=152.0
new line.52888735 phases=3 bus1=80544535008497.1.2.3 bus2=80544375008497.1.2.3 r1=0.195 x1=0.4 length=0.021056 units=km normamps=419.0
new line.52888736 phases=3 bus1=80544545008497.1.2.3 bus2=80544535008497.1.2.3 r1=0.195 x1=0.4 length=0.030694 units=km normamps=419.0
new line.52888737 phases=3 bus1=80544555008497.1.2.3 bus2=80544545008497.1.2.3 r1=0.195 x1=0.4 length=0.003152 units=km normamps=419.0
new line.52888738 phases=3 bus1=80544365008497.1.2.3 bus2=80544575008497.1.2.3 r1=0.195 x1=0.4 length=0.02607 units=km normamps=419.0
new line.52888739 phases=3 bus1=80544585008497.1.2.3 bus2=80544365008497.1.2.3 r1=0.195 x1=0.4 length=0.022121 units=km normamps=419.0
new line.52888740 phases=3 bus1=80544595008497.1.2.3 bus2=80544585008497.1.2.3 r1=0.195 x1=0.4 length=0.0311 units=km normamps=419.0
new line.52888741 phases=3 bus1=80544605008497.1.2.3 bus2=80544595008497.1.2.3 r1=0.195 x1=0.4 length=0.040242 units=km normamps=419.0
new line.52888742 phases=3 bus1=80544605008497.1.2.3 bus2=94299285008497.1.2.3 r1=0.195 x1=0.4 length=0.008245 units=km normamps=419.0
new line.52888745 phases=3 bus1=80544355008497.1.2.3 bus2=80544685008497.1.2.3 r1=0.975 x1=0.47 length=0.017593 units=km normamps=152.0
new line.52888746 phases=3 bus1=80544685008497B.1.2.3 bus2=80544695008497.1.2.3 r1=0.975 x1=0.47 length=0.039338 units=km normamps=152.0
new line.52888749 phases=3 bus1=80545575008497.1.2.3 bus2=80545585008497.1.2.3 r1=0.195 x1=0.4 length=0.018799 units=km normamps=419.0
new line.52888750 phases=3 bus1=80545585008497B.1.2.3 bus2=95136355008497.1.2.3 r1=0.195 x1=0.4 length=0.012191 units=km normamps=419.0
new line.52888752 phases=3 bus1=80545595008497.1.2.3 bus2=80545635008497.1.2.3 r1=0.195 x1=0.4 length=0.023784 units=km normamps=419.0
new line.52888753 phases=3 bus1=80545635008497.1.2.3 bus2=80545675008497.1.2.3 r1=0.195 x1=0.4 length=0.027007 units=km normamps=419.0
new line.52888754 phases=3 bus1=80545675008497.1.2.3 bus2=80545685008497.1.2.3 r1=0.195 x1=0.4 length=0.024392 units=km normamps=419.0
new line.52888755 phases=3 bus1=80545685008497.1.2.3 bus2=80545695008497.1.2.3 r1=0.195 x1=0.4 length=0.025808 units=km normamps=419.0
new line.52888757 phases=3 bus1=80544835008497.1.2.3 bus2=80545015008497.1.2.3 r1=1.551 x1=0.49 length=0.029626 units=km normamps=114.0
new line.52888758 phases=3 bus1=80544845008497.1.2.3 bus2=80544835008497.1.2.3 r1=1.551 x1=0.49 length=0.027189 units=km normamps=114.0
new line.52888759 phases=3 bus1=80545975008497.1.2.3 bus2=80545965008497.1.2.3 r1=0.195 x1=0.4 length=0.007374 units=km normamps=419.0
new line.52888760 phases=3 bus1=80545965008497.1.2.3 bus2=80545985008497.1.2.3 r1=0.195 x1=0.4 length=0.025625 units=km normamps=419.0
new line.52888761 phases=3 bus1=80545975008497.1.2.3 bus2=80543215008497.1.2.3 r1=0.195 x1=0.4 length=0.027011 units=km normamps=419.0
new line.52888762 phases=3 bus1=80546025008497B.1.2.3 bus2=80545975008497.1.2.3 r1=0.195 x1=0.4 length=0.024227 units=km normamps=419.0
new line.52888763 phases=3 bus1=80546035008497.1.2.3 bus2=91039805008497B.1.2.3 r1=0.195 x1=0.4 length=0.00683 units=km normamps=419.0
new line.52888764 phases=3 bus1=80546035008497B.1.2.3 bus2=80546045008497.1.2.3 r1=1.551 x1=0.49 length=0.01843 units=km normamps=114.0
new line.52888765 phases=3 bus1=80546055008497.1.2.3 bus2=80546035008497.1.2.3 r1=0.195 x1=0.4 length=0.027438 units=km normamps=419.0
new line.52888766 phases=3 bus1=80546085008497.1.2.3 bus2=80546055008497.1.2.3 r1=0.195 x1=0.4 length=0.030694 units=km normamps=419.0
new line.52888767 phases=3 bus1=80546085008497.1.2.3 bus2=80546075008497.1.2.3 r1=1.551 x1=0.49 length=0.020142 units=km normamps=114.0
new line.52888768 phases=3 bus1=80546095008497.1.2.3 bus2=80546075008497.1.2.3 r1=1.551 x1=0.49 length=0.00746 units=km normamps=114.0
new line.52888769 phases=3 bus1=80546115008497.1.2.3 bus2=80540845008497.1.2.3 r1=0.236 x1=0.27 length=0.027168 units=km normamps=456.0
new line.52888771 phases=3 bus1=80546265008497.1.2.3 bus2=80546255008497.1.2.3 r1=0.236 x1=0.27 length=0.012648 units=km normamps=456.0
new line.52888772 phases=3 bus1=80546275008497.1.2.3 bus2=80546235008497.1.2.3 r1=0.236 x1=0.27 length=0.025868 units=km normamps=456.0
new line.52888773 phases=3 bus1=80544915008497.1.2.3 bus2=95137155008497.1.2.3 r1=0.195 x1=0.4 length=0.009818 units=km normamps=419.0
new line.52888774 phases=3 bus1=80546295008497.1.2.3 bus2=80545575008497.1.2.3 r1=0.195 x1=0.4 length=0.009427 units=km normamps=419.0
new line.52888775 phases=3 bus1=80546275008497.1.2.3 bus2=80546295008497.1.2.3 r1=0.195 x1=0.4 length=0.023068 units=km normamps=419.0
new line.52888776 phases=3 bus1=80546295008497.1.2.3 bus2=80546245008497B.1.2.3 r1=0.613 x1=0.45 length=0.010427 units=km normamps=203.0
new line.52888777 phases=3 bus1=80546325008497.1.2.3 bus2=80546335008497.1.2.3 r1=1.551 x1=0.49 length=0.024732 units=km normamps=114.0
new line.52888778 phases=3 bus1=80546345008497.1.2.3 bus2=80546325008497.1.2.3 r1=1.551 x1=0.49 length=0.007158 units=km normamps=114.0
new line.52888779 phases=3 bus1=80546335008497.1.2.3 bus2=80546355008497.1.2.3 r1=1.551 x1=0.49 length=0.038329 units=km normamps=114.0
new line.52888780 phases=3 bus1=80546355008497.1.2.3 bus2=80546365008497.1.2.3 r1=1.551 x1=0.49 length=0.034969 units=km normamps=114.0
new line.52888781 phases=3 bus1=80546365008497.1.2.3 bus2=80546375008497.1.2.3 r1=1.551 x1=0.49 length=0.034288 units=km normamps=114.0
new line.52888782 phases=3 bus1=80546375008497.1.2.3 bus2=80546385008497.1.2.3 r1=1.551 x1=0.49 length=0.018772 units=km normamps=114.0
new line.52888783 phases=3 bus1=80546385008497.1.2.3 bus2=80546395008497.1.2.3 r1=1.551 x1=0.49 length=0.035672 units=km normamps=114.0
new line.52888784 phases=3 bus1=80546395008497.1.2.3 bus2=80546405008497B.1.2.3 r1=1.551 x1=0.49 length=0.007444 units=km normamps=114.0
new line.52888785 phases=3 bus1=80546405008497.1.2.3 bus2=80546085008497.1.2.3 r1=0.195 x1=0.4 length=0.027929 units=km normamps=419.0
new line.52888786 phases=3 bus1=80546435008497B.1.2.3 bus2=80546445008497.1.2.3 r1=1.551 x1=0.49 length=0.019273 units=km normamps=114.0
new line.52888787 phases=3 bus1=80546405008497.1.2.3 bus2=80546425008497.1.2.3 r1=0.195 x1=0.4 length=0.033999 units=km normamps=419.0
new line.52888788 phases=3 bus1=80546425008497.1.2.3 bus2=80546435008497.1.2.3 r1=0.195 x1=0.4 length=0.025803 units=km normamps=419.0
new line.52888789 phases=3 bus1=80546445008497.1.2.3 bus2=80546465008497.1.2.3 r1=1.551 x1=0.49 length=0.019669 units=km normamps=114.0
new line.52888790 phases=3 bus1=80546475008497.1.2.3 bus2=80546465008497.1.2.3 r1=0.732 x1=0.31 length=0.01636 units=km normamps=225.0
new line.52888791 phases=3 bus1=80546465008497.1.2.3 bus2=80546485008497.1.2.3 r1=1.551 x1=0.49 length=0.020329 units=km normamps=114.0
new line.52888792 phases=3 bus1=80546885008497.1.2.3 bus2=80546895008497.1.2.3 r1=0.195 x1=0.4 length=0.029299 units=km normamps=419.0
new line.52888793 phases=3 bus1=80546495008497.1.2.3 bus2=80546485008497.1.2.3 r1=1.551 x1=0.49 length=0.00695 units=km normamps=114.0
new line.52888794 phases=3 bus1=80546485008497.1.2.3 bus2=80546505008497.1.2.3 r1=1.551 x1=0.49 length=0.018109 units=km normamps=114.0
new line.52888797 phases=3 bus1=80545705008497.1.2.3 bus2=80545845008497.1.2.3 r1=0.195 x1=0.4 length=0.016645 units=km normamps=419.0
new line.52888798 phases=3 bus1=80545695008497.1.2.3 bus2=80545705008497.1.2.3 r1=0.195 x1=0.4 length=0.031301 units=km normamps=419.0
new line.52888799 phases=3 bus1=80545855008497.1.2.3 bus2=80545845008497.1.2.3 r1=0.195 x1=0.4 length=0.006239 units=km normamps=419.0
new line.52888800 phases=3 bus1=80545845008497.1.2.3 bus2=80545905008497.1.2.3 r1=0.195 x1=0.4 length=0.031895 units=km normamps=419.0
new line.52888801 phases=3 bus1=80545905008497.1.2.3 bus2=80545915008497.1.2.3 r1=0.195 x1=0.4 length=0.024913 units=km normamps=419.0
new line.52888802 phases=3 bus1=80545915008497.1.2.3 bus2=80545925008497.1.2.3 r1=0.195 x1=0.4 length=0.023511 units=km normamps=419.0
new line.52888803 phases=3 bus1=80545925008497.1.2.3 bus2=80545935008497.1.2.3 r1=0.195 x1=0.4 length=0.030305 units=km normamps=419.0
new line.52888804 phases=3 bus1=80545935008497.1.2.3 bus2=80545945008497.1.2.3 r1=0.195 x1=0.4 length=0.024778 units=km normamps=419.0
new line.52888805 phases=3 bus1=80545945008497.1.2.3 bus2=80545955008497B.1.2.3 r1=0.195 x1=0.4 length=0.014747 units=km normamps=419.0
new line.52888806 phases=3 bus1=80545955008497.1.2.3 bus2=80545975008497.1.2.3 r1=0.195 x1=0.4 length=0.004573 units=km normamps=419.0
new line.52888807 phases=3 bus1=80546115008497.1.2.3 bus2=80546155008497.1.2.3 r1=0.236 x1=0.27 length=0.026288 units=km normamps=456.0
new line.52888808 phases=3 bus1=80546155008497.1.2.3 bus2=80546145008497.1.2.3 r1=0.236 x1=0.27 length=0.00622 units=km normamps=456.0
new line.52888810 phases=3 bus1=80546165008497B.1.2.3 bus2=80546175008497.1.2.3 r1=0.975 x1=0.47 length=0.029933 units=km normamps=152.0
new line.52888811 phases=3 bus1=80546185008497.1.2.3 bus2=80546175008497.1.2.3 r1=0.975 x1=0.47 length=0.007209 units=km normamps=152.0
new line.52888812 phases=3 bus1=80546195008497.1.2.3 bus2=95133435008497.1.2.3 r1=0.236 x1=0.27 length=0.013488 units=km normamps=456.0
new line.52888813 phases=3 bus1=80546205008497.1.2.3 bus2=80546195008497.1.2.3 r1=0.613 x1=0.45 length=0.011136 units=km normamps=203.0
new line.52888814 phases=3 bus1=80546235008497.1.2.3 bus2=83083865008497.1.2.3 r1=0.236 x1=0.27 length=0.009038 units=km normamps=456.0
new line.52888817 phases=3 bus1=80544355008497.1.2.3 bus2=80544675008497.1.2.3 r1=0.975 x1=0.47 length=0.033071 units=km normamps=152.0
new line.52888818 phases=3 bus1=80546245008497.1.2.3 bus2=80546255008497.1.2.3 r1=0.236 x1=0.27 length=0.008736 units=km normamps=456.0
new line.52888819 phases=3 bus1=80546505008497.1.2.3 bus2=80546515008497.1.2.3 r1=1.551 x1=0.49 length=0.013719 units=km normamps=114.0
new line.52888821 phases=3 bus1=80546515008497.1.2.3 bus2=80545085008497.1.2.3 r1=1.551 x1=0.49 length=0.024732 units=km normamps=114.0
new line.52888822 phases=3 bus1=80545095008497.1.2.3 bus2=80545085008497.1.2.3 r1=1.551 x1=0.49 length=0.00746 units=km normamps=114.0
new line.52888827 phases=3 bus1=80545125008497.1.2.3 bus2=80546455008497.1.2.3 r1=1.551 x1=0.49 length=0.006651 units=km normamps=114.0
new line.52888870 phases=3 bus1=80541005008497.1.2.3 bus2=80540995008497.1.2.3 r1=1.551 x1=0.49 length=0.007459 units=km normamps=114.0
new line.52888894 phases=3 bus1=80541365008497.1.2.3 bus2=80541355008497.1.2.3 r1=1.551 x1=0.49 length=0.013718 units=km normamps=114.0
new line.52888895 phases=3 bus1=80541365008497B.1.2.3 bus2=80541385008497.1.2.3 r1=1.551 x1=0.49 length=0.034779 units=km normamps=114.0
new line.52888896 phases=3 bus1=80541395008497.1.2.3 bus2=80541385008497.1.2.3 r1=1.551 x1=0.49 length=0.008365 units=km normamps=114.0
new line.52888897 phases=3 bus1=80541405008497.1.2.3 bus2=80541385008497.1.2.3 r1=1.551 x1=0.49 length=0.038144 units=km normamps=114.0
new line.52888902 phases=3 bus1=80541585008497.1.2.3 bus2=80541595008497.1.2.3 r1=1.551 x1=0.49 length=0.026546 units=km normamps=114.0
new line.52888903 phases=3 bus1=80541595008497.1.2.3 bus2=80541605008497.1.2.3 r1=1.551 x1=0.49 length=0.028178 units=km normamps=114.0
new line.52888904 phases=3 bus1=80541605008497.1.2.3 bus2=80541615008497.1.2.3 r1=1.551 x1=0.49 length=0.023541 units=km normamps=114.0
new line.52888905 phases=3 bus1=80541615008497.1.2.3 bus2=80541645008497.1.2.3 r1=1.551 x1=0.49 length=0.036812 units=km normamps=114.0
new line.52888906 phases=3 bus1=80541675008497.1.2.3 bus2=80541555008497.1.2.3 r1=1.551 x1=0.49 length=0.024749 units=km normamps=114.0
new line.52888907 phases=3 bus1=80541645008497.1.2.3 bus2=80541655008497.1.2.3 r1=1.551 x1=0.49 length=0.041937 units=km normamps=114.0
new line.52888908 phases=3 bus1=80541655008497.1.2.3 bus2=80541675008497.1.2.3 r1=1.551 x1=0.49 length=0.027599 units=km normamps=114.0
new line.52888909 phases=3 bus1=80544695008497.1.2.3 bus2=80545295008497.1.2.3 r1=0.975 x1=0.47 length=0.049099 units=km normamps=152.0
new line.52888910 phases=3 bus1=80545295008497B.1.2.3 bus2=80545305008497.1.2.3 r1=0.975 x1=0.47 length=0.023607 units=km normamps=152.0
new line.52888911 phases=3 bus1=80545315008497.1.2.3 bus2=80545305008497.1.2.3 r1=0.975 x1=0.47 length=0.007158 units=km normamps=152.0
new line.52888912 phases=3 bus1=80545325008497.1.2.3 bus2=80545305008497.1.2.3 r1=0.975 x1=0.47 length=0.023784 units=km normamps=152.0
new line.52888913 phases=3 bus1=80545325008497.1.2.3 bus2=80545335008497.1.2.3 r1=0.975 x1=0.47 length=0.009427 units=km normamps=152.0
new line.52888914 phases=3 bus1=80545345008497.1.2.3 bus2=80545335008497.1.2.3 r1=0.975 x1=0.47 length=0.009427 units=km normamps=152.0
new line.52888915 phases=3 bus1=80545355008497.1.2.3 bus2=80545325008497.1.2.3 r1=0.975 x1=0.47 length=0.032481 units=km normamps=152.0
new line.52888916 phases=3 bus1=80545375008497.1.2.3 bus2=80545355008497.1.2.3 r1=0.975 x1=0.47 length=0.00746 units=km normamps=152.0
new line.52888917 phases=3 bus1=80545295008497.1.2.3 bus2=80545385008497.1.2.3 r1=0.613 x1=0.45 length=0.014641 units=km normamps=203.0
new line.52888918 phases=3 bus1=80545395008497.1.2.3 bus2=80545385008497.1.2.3 r1=0.613 x1=0.45 length=0.007004 units=km normamps=203.0
new line.52888919 phases=3 bus1=80545385008497.1.2.3 bus2=80545405008497.1.2.3 r1=0.613 x1=0.45 length=0.012508 units=km normamps=203.0
new line.52888938 phases=3 bus1=80546855008497.1.2.3 bus2=80546865008497.1.2.3 r1=0.195 x1=0.4 length=0.008795 units=km normamps=419.0
new line.52888939 phases=3 bus1=80546875008497.1.2.3 bus2=80546865008497.1.2.3 r1=0.195 x1=0.4 length=0.009371 units=km normamps=419.0
new line.52888940 phases=3 bus1=80546885008497.1.2.3 bus2=80546865008497.1.2.3 r1=0.195 x1=0.4 length=0.008737 units=km normamps=419.0
new line.52888941 phases=3 bus1=80546905008497.1.2.3 bus2=80546895008497B.1.2.3 r1=1.551 x1=0.49 length=0.013332 units=km normamps=114.0
new line.52888942 phases=3 bus1=80546925008497.1.2.3 bus2=80546895008497.1.2.3 r1=0.195 x1=0.4 length=0.031574 units=km normamps=419.0
new line.52888943 phases=3 bus1=80546925008497.1.2.3 bus2=80546935008497.1.2.3 r1=0.195 x1=0.4 length=0.037543 units=km normamps=419.0
new line.52888944 phases=3 bus1=80546935008497.1.2.3 bus2=80546945008497.1.2.3 r1=0.195 x1=0.4 length=0.033863 units=km normamps=419.0
new line.52888945 phases=3 bus1=80546945008497.1.2.3 bus2=80544575008497B.1.2.3 r1=0.195 x1=0.4 length=0.02791 units=km normamps=419.0
new line.52888948 phases=3 bus1=80547065008497.1.2.3 bus2=80546265008497.1.2.3 r1=0.236 x1=0.27 length=0.027816 units=km normamps=456.0
new line.52888949 phases=3 bus1=80547075008497.1.2.3 bus2=80547065008497.1.2.3 r1=0.236 x1=0.27 length=0.021351 units=km normamps=456.0
new line.52888950 phases=3 bus1=80547085008497.1.2.3 bus2=80547075008497.1.2.3 r1=0.236 x1=0.27 length=0.025869 units=km normamps=456.0
new line.52888952 phases=3 bus1=80543215008497.1.2.3 bus2=80543225008497.1.2.3 r1=0.195 x1=0.4 length=0.022026 units=km normamps=419.0
new line.52888953 phases=3 bus1=80543235008497.1.2.3 bus2=80543225008497B.1.2.3 r1=1.551 x1=0.49 length=0.027533 units=km normamps=114.0
new line.52888954 phases=3 bus1=80543235008497.1.2.3 bus2=80543245008497.1.2.3 r1=1.551 x1=0.49 length=0.026841 units=km normamps=114.0
new line.52888955 phases=3 bus1=80543245008497.1.2.3 bus2=80543255008497.1.2.3 r1=1.551 x1=0.49 length=0.023318 units=km normamps=114.0
new line.52888956 phases=3 bus1=80543255008497.1.2.3 bus2=80543265008497.1.2.3 r1=1.551 x1=0.49 length=0.027063 units=km normamps=114.0
new line.52888957 phases=3 bus1=80543265008497.1.2.3 bus2=80543275008497.1.2.3 r1=1.551 x1=0.49 length=0.029084 units=km normamps=114.0
new line.52888958 phases=3 bus1=80543285008497.1.2.3 bus2=80543275008497.1.2.3 r1=1.551 x1=0.49 length=0.007618 units=km normamps=114.0
new line.52888959 phases=3 bus1=80543275008497.1.2.3 bus2=80543295008497.1.2.3 r1=1.551 x1=0.49 length=0.035804 units=km normamps=114.0
new line.52888960 phases=3 bus1=80543295008497.1.2.3 bus2=80543305008497.1.2.3 r1=1.551 x1=0.49 length=0.02865 units=km normamps=114.0
new line.52888961 phases=3 bus1=80543305008497.1.2.3 bus2=80543315008497.1.2.3 r1=1.551 x1=0.49 length=0.021474 units=km normamps=114.0
new line.52888962 phases=3 bus1=80543315008497.1.2.3 bus2=80543325008497.1.2.3 r1=0.613 x1=0.45 length=0.033117 units=km normamps=203.0
new line.52888975 phases=3 bus1=80547095008497.1.2.3 bus2=80547085008497.1.2.3 r1=0.236 x1=0.27 length=0.024574 units=km normamps=456.0
new line.52888976 phases=3 bus1=80547105008497.1.2.3 bus2=80547095008497.1.2.3 r1=0.236 x1=0.27 length=0.022635 units=km normamps=456.0
new line.52888977 phases=3 bus1=80547105008497.1.2.3 bus2=80547015008497.1.2.3 r1=2.389 x1=0.52 length=0.033493 units=km normamps=90.0
...

! 3. Chaves Seccionadoras MT
new line.SC_5271249 phases=3 bus1=80480865008497.1.2.3 bus2=80480865008497B.1.2.3 switch=y r1=1e-4 x1=1e-4 length=0.001 units=km
new line.SC_5271687 phases=3 bus1=80526185008497.1.2.3 bus2=80526185008497B.1.2.3 switch=y r1=1e-4 x1=1e-4 length=0.001 units=km
new line.SC_5272066 phases=3 bus1=80545445008497.1.2.3 bus2=80545445008497B.1.2.3 switch=y r1=1e-4 x1=1e-4 length=0.001 units=km
new line.SC_5272067 phases=3 bus1=80544345008497.1.2.3 bus2=80544345008497B.1.2.3 switch=y r1=1e-4 x1=1e-4 length=0.001 units=km
new line.SC_5272068 phases=3 bus1=80544575008497.1.2.3 bus2=80544575008497B.1.2.3 switch=y r1=1e-4 x1=1e-4 length=0.001 units=km
new line.SC_5272070 phases=3 bus1=80546855008497.1.2.3 bus2=80546855008497B.1.2.3 switch=y r1=1e-4 x1=1e-4 length=0.001 units=km
new line.SC_5272072 phases=3 bus1=80545955008497.1.2.3 bus2=80545955008497B.1.2.3 switch=y r1=1e-4 x1=1e-4 length=0.001 units=km
new line.SC_5272073 phases=3 bus1=80546025008497.1.2.3 bus2=80546025008497B.1.2.3 switch=y r1=1e-4 x1=1e-4 length=0.001 units=km
new line.SC_5272074 phases=3 bus1=80543225008497.1.2.3 bus2=80543225008497B.1.2.3 switch=y r1=1e-4 x1=1e-4 length=0.001 units=km
new line.SC_5272078 phases=3 bus1=80546245008497.1.2.3 bus2=80546245008497B.1.2.3 switch=y r1=1e-4 x1=1e-4 length=0.001 units=km
new line.SC_5272080 phases=3 bus1=80445395008497.1.2.3 bus2=80445395008497B.1.2.3 switch=y r1=1e-4 x1=1e-4 length=0.001 units=km
new line.SC_5272081 phases=3 bus1=80547955008497.1.2.3 bus2=80547955008497B.1.2.3 switch=y r1=1e-4 x1=1e-4 length=0.001 units=km
new line.SC_5272160 phases=3 bus1=80541365008497.1.2.3 bus2=80541365008497B.1.2.3 switch=y r1=1e-4 x1=1e-4 length=0.001 units=km
new line.SC_5272165 phases=3 bus1=80545425008497.1.2.3 bus2=80545425008497B.1.2.3 switch=y r1=1e-4 x1=1e-4 length=0.001 units=km
new line.SC_5272168 phases=3 bus1=80544685008497.1.2.3 bus2=80544685008497B.1.2.3 switch=y r1=1e-4 x1=1e-4 length=0.001 units=km
new line.SC_5272169 phases=3 bus1=80545295008497.1.2.3 bus2=80545295008497B.1.2.3 switch=y r1=1e-4 x1=1e-4 length=0.001 units=km
new line.SC_5272170 phases=3 bus1=80546895008497.1.2.3 bus2=80546895008497B.1.2.3 switch=y r1=1e-4 x1=1e-4 length=0.001 units=km
new line.SC_5272171 phases=3 bus1=80547565008497.1.2.3 bus2=80547565008497B.1.2.3 switch=y r1=1e-4 x1=1e-4 length=0.001 units=km
new line.SC_5272172 phases=3 bus1=80547525008497.1.2.3 bus2=80547525008497B.1.2.3 switch=y r1=1e-4 x1=1e-4 length=0.001 units=km
new line.SC_5272173 phases=3 bus1=80547465008497.1.2.3 bus2=80547465008497B.1.2.3 switch=y r1=1e-4 x1=1e-4 length=0.001 units=km
new line.SC_5272174 phases=3 bus1=80547625008497.1.2.3 bus2=80547625008497B.1.2.3 switch=y r1=1e-4 x1=1e-4 length=0.001 units=km
new line.SC_5272175 phases=3 bus1=80546165008497.1.2.3 bus2=80546165008497B.1.2.3 switch=y r1=1e-4 x1=1e-4 length=0.001 units=km
new line.SC_5272178 phases=3 bus1=80546405008497.1.2.3 bus2=80546405008497B.1.2.3 switch=y r1=1e-4 x1=1e-4 length=0.001 units=km
new line.SC_5272179 phases=3 bus1=80546435008497.1.2.3 bus2=80546435008497B.1.2.3 switch=y r1=1e-4 x1=1e-4 length=0.001 units=km
new line.SC_5272200 phases=3 bus1=80546035008497.1.2.3 bus2=80546035008497B.1.2.3 switch=y r1=1e-4 x1=1e-4 length=0.001 units=km
new line.SC_5503894 phases=3 bus1=80547305008497.1.2.3 bus2=80547305008497B.1.2.3 switch=y r1=1e-4 x1=1e-4 length=0.001 units=km
new line.SC_5582022 phases=3 bus1=91039775008497.1.2.3 bus2=91039775008497B.1.2.3 switch=y r1=1e-4 x1=1e-4 length=0.001 units=km
new line.SC_5582024 phases=3 bus1=93310965008497.1.2.3 bus2=93310965008497B.1.2.3 switch=y r1=1e-4 x1=1e-4 length=0.001 units=km
new line.SC_5582025 phases=3 bus1=91039805008497.1.2.3 bus2=91039805008497B.1.2.3 switch=y r1=1e-4 x1=1e-4 length=0.001 units=km
new line.SC_5582026 phases=3 bus1=91888445008497.1.2.3 bus2=91888445008497B.1.2.3 switch=y r1=1e-4 x1=1e-4 length=0.001 units=km
open line.SC_5582026 1
new line.SC_5584296 phases=3 bus1=91088505008497.1.2.3 bus2=91088505008497B.1.2.3 switch=y r1=1e-4 x1=1e-4 length=0.001 units=km
open line.SC_5584296 1
new line.SC_5584299 phases=3 bus1=91088705008497.1.2.3 bus2=91088705008497B.1.2.3 switch=y r1=1e-4 x1=1e-4 length=0.001 units=km
new line.SC_5584300 phases=3 bus1=91088725008497.1.2.3 bus2=91088725008497B.1.2.3 switch=y r1=1e-4 x1=1e-4 length=0.001 units=km
open line.SC_5584300 1
new line.SC_5676448 phases=3 bus1=94031325008497.1.2.3 bus2=94031325008497B.1.2.3 switch=y r1=1e-4 x1=1e-4 length=0.001 units=km
new line.SC_5682930 phases=3 bus1=94192125008497.1.2.3 bus2=94192125008497B.1.2.3 switch=y r1=1e-4 x1=1e-4 length=0.001 units=km
new line.SC_5682931 phases=3 bus1=94192365008497.1.2.3 bus2=94192365008497B.1.2.3 switch=y r1=1e-4 x1=1e-4 length=0.001 units=km
open line.SC_5682931 1
new line.SC_5710511 phases=3 bus1=94777645008497.1.2.3 bus2=94777645008497B.1.2.3 switch=y r1=1e-4 x1=1e-4 length=0.001 units=km
open line.SC_5710511 1
new line.SC_5710512 phases=3 bus1=94777685008497.1.2.3 bus2=94777685008497B.1.2.3 switch=y r1=1e-4 x1=1e-4 length=0.001 units=km
open line.SC_5710512 1
new line.SC_5710822 phases=3 bus1=94789975008497.1.2.3 bus2=94789975008497B.1.2.3 switch=y r1=1e-4 x1=1e-4 length=0.001 units=km
open line.SC_5710822 1
new line.SC_5716885 phases=3 bus1=94978835008497.1.2.3 bus2=94978835008497B.1.2.3 switch=y r1=1e-4 x1=1e-4 length=0.001 units=km
open line.SC_5716885 1
new line.SC_5716886 phases=3 bus1=94979115008497.1.2.3 bus2=94979115008497B.1.2.3 switch=y r1=1e-4 x1=1e-4 length=0.001 units=km
open line.SC_5716886 1
new line.SC_5717831 phases=3 bus1=95001265008497.1.2.3 bus2=95001265008497B.1.2.3 switch=y r1=1e-4 x1=1e-4 length=0.001 units=km
open line.SC_5717831 1
new line.SC_5721364 phases=3 bus1=80545585008497.1.2.3 bus2=80545585008497B.1.2.3 switch=y r1=1e-4 x1=1e-4 length=0.001 units=km
new line.SC_5727692 phases=3 bus1=95463895008497.1.2.3 bus2=95463895008497B.1.2.3 switch=y r1=1e-4 x1=1e-4 length=0.001 units=km
new line.SC_5748396 phases=3 bus1=96490215008497.1.2.3 bus2=96490215008497B.1.2.3 switch=y r1=1e-4 x1=1e-4 length=0.001 units=km
new line.SC_5752269 phases=3 bus1=80541185008497.1.2.3 bus2=80541185008497B.1.2.3 switch=y r1=1e-4 x1=1e-4 length=0.001 units=km
new line.SC_5752324 phases=3 bus1=96416695008497.1.2.3 bus2=96416695008497B.1.2.3 switch=y r1=1e-4 x1=1e-4 length=0.001 units=km
new line.SC_5756730 phases=3 bus1=80546525008497.1.2.3 bus2=80546525008497B.1.2.3 switch=y r1=1e-4 x1=1e-4 length=0.001 units=km
new line.SC_5763561 phases=3 bus1=80480835008497.1.2.3 bus2=80480835008497B.1.2.3 switch=y r1=1e-4 x1=1e-4 length=0.001 units=km
open line.SC_5763561 1
new line.SC_5771937 phases=3 bus1=80481055008497.1.2.3 bus2=80481055008497B.1.2.3 switch=y r1=1e-4 x1=1e-4 length=0.001 units=km
new line.SC_5780199 phases=3 bus1=80480875008497.1.2.3 bus2=80480875008497B.1.2.3 switch=y r1=1e-4 x1=1e-4 length=0.001 units=km
new line.SC_5780432 phases=3 bus1=97799785008497.1.2.3 bus2=97799785008497B.1.2.3 switch=y r1=1e-4 x1=1e-4 length=0.001 units=km
open line.SC_5780432 1

! 5. Transformadores MT/BT de Distribuicao
new transformer.UNTRMT_5271312 phases=3 windings=2 %r=1.55 xhl=3.14 kva=75.0
~ wdg=1 bus=80480945008497.1.2.3 conn=delta kv=13.8
~ wdg=2 bus=80480945271312.1.2.3.0 conn=wye kv=0.38

new transformer.UNTRMT_5271313 phases=3 windings=2 %r=1.55 xhl=3.14 kva=75.0
~ wdg=1 bus=80481005008497.1.2.3 conn=delta kv=13.8
~ wdg=2 bus=80481005271313.1.2.3.0 conn=wye kv=0.38

new transformer.UNTRMT_5271322 phases=3 windings=2 %r=1.3 xhl=4.31 kva=225.0
~ wdg=1 bus=80483105008497.1.2.3 conn=delta kv=13.8
~ wdg=2 bus=80483105271322.1.2.3.0 conn=wye kv=0.38

new transformer.UNTRMT_5272093 phases=3 windings=2 %r=1.55 xhl=3.14 kva=75.0
~ wdg=1 bus=80544955008497.1.2.3 conn=delta kv=13.8
~ wdg=2 bus=80544955272093.1.2.3.0 conn=wye kv=0.38

new transformer.UNTRMT_5272095 phases=3 windings=2 %r=1.55 xhl=3.14 kva=75.0
~ wdg=1 bus=80544305008497.1.2.3 conn=delta kv=13.8
~ wdg=2 bus=80544305272095.1.2.3.0 conn=wye kv=0.38

new transformer.UNTRMT_5272096 phases=3 windings=2 %r=1.55 xhl=3.14 kva=75.0
~ wdg=1 bus=80544325008497.1.2.3 conn=delta kv=13.8
~ wdg=2 bus=80544325272096.1.2.3.0 conn=wye kv=0.38

new transformer.UNTRMT_5272097 phases=3 windings=2 %r=1.02 xhl=5.91 kva=112.0
~ wdg=1 bus=80544445008497.1.2.3 conn=delta kv=13.8
~ wdg=2 bus=80544445272097.1.2.3.0 conn=wye kv=0.38

new transformer.UNTRMT_5272098 phases=3 windings=2 %r=1.55 xhl=3.14 kva=75.0
~ wdg=1 bus=80544555008497.1.2.3 conn=delta kv=13.8
~ wdg=2 bus=80544555272098.1.2.3.0 conn=wye kv=0.38

new transformer.UNTRMT_5272100 phases=3 windings=2 %r=1.68 xhl=3.07 kva=45.0
~ wdg=1 bus=80545315008497.1.2.3 conn=delta kv=13.8
~ wdg=2 bus=80545315272100.1.2.3.0 conn=wye kv=0.38

new transformer.UNTRMT_5272101 phases=3 windings=2 %r=1.3 xhl=4.31 kva=225.0
~ wdg=1 bus=80545345008497.1.2.3 conn=delta kv=13.8
~ wdg=2 bus=80545345272101.1.2.3.0 conn=wye kv=0.38

new transformer.UNTRMT_5272102 phases=3 windings=2 %r=1.3 xhl=4.31 kva=225.0
~ wdg=1 bus=80545375008497.1.2.3 conn=delta kv=13.8
~ wdg=2 bus=80545375272102.1.2.3.0 conn=wye kv=0.38

new transformer.UNTRMT_5272103 phases=3 windings=2 %r=1.25 xhl=4.32 kva=300.0
~ wdg=1 bus=80545395008497.1.2.3 conn=delta kv=13.8
~ wdg=2 bus=80545395272103.1.2.3.0 conn=wye kv=0.38

new transformer.UNTRMT_5272105 phases=3 windings=2 %r=1.3 xhl=4.31 kva=112.0
~ wdg=1 bus=80546875008497.1.2.3 conn=delta kv=13.8
~ wdg=2 bus=80546875272105.1.2.3.0 conn=wye kv=0.38

new transformer.UNTRMT_5272107 phases=3 windings=2 %r=1.25 xhl=4.32 kva=300.0
~ wdg=1 bus=80547115008497.1.2.3 conn=delta kv=13.8
~ wdg=2 bus=80547115272107.1.2.3.0 conn=wye kv=0.38

new transformer.UNTRMT_5272108 phases=3 windings=2 %r=1.3 xhl=4.31 kva=450.0
~ wdg=1 bus=80547315008497.1.2.3 conn=delta kv=13.8
~ wdg=2 bus=80547315272108.1.2.3.0 conn=wye kv=0.38

new transformer.UNTRMT_5272108_2 phases=3 windings=2 %r=1.3 xhl=4.31 kva=450.0
~ wdg=1 bus=80547315008497.1.2.3 conn=delta kv=13.8
~ wdg=2 bus=80547315272108_2.1.2.3.0 conn=wye kv=0.38

new transformer.UNTRMT_5272110 phases=3 windings=2 %r=1.46 xhl=3.18 kva=112.0
~ wdg=1 bus=80547605008497.1.2.3 conn=delta kv=13.8
~ wdg=2 bus=80547605272110.1.2.3.0 conn=wye kv=0.38

new transformer.UNTRMT_5272111 phases=3 windings=2 %r=1.55 xhl=3.14 kva=75.0
~ wdg=1 bus=80547685008497.1.2.3 conn=delta kv=13.8
~ wdg=2 bus=80547685272111.1.2.3.0 conn=wye kv=0.38

new transformer.UNTRMT_5272113 phases=3 windings=2 %r=1.39 xhl=3.21 kva=112.0
~ wdg=1 bus=80546185008497.1.2.3 conn=delta kv=13.8
~ wdg=2 bus=80546185272113.1.2.3.0 conn=wye kv=0.38

new transformer.UNTRMT_5272114 phases=3 windings=2 %r=1.39 xhl=3.21 kva=112.0
~ wdg=1 bus=80546205008497.1.2.3 conn=delta kv=13.8
~ wdg=2 bus=80546205272114.1.2.3.0 conn=wye kv=0.38

new transformer.UNTRMT_5272116 phases=3 windings=2 %r=1.68 xhl=3.07 kva=45.0
~ wdg=1 bus=80545125008497.1.2.3 conn=delta kv=13.8
~ wdg=2 bus=80545125272116.1.2.3.0 conn=wye kv=0.38

new transformer.UNTRMT_5272120 phases=3 windings=2 %r=1.46 xhl=3.18 kva=112.0
~ wdg=1 bus=80545605008497.1.2.3 conn=delta kv=13.8
~ wdg=2 bus=80545605272120.1.2.3.0 conn=wye kv=0.38

new transformer.UNTRMT_5272142 phases=3 windings=2 %r=1.55 xhl=3.14 kva=75.0
~ wdg=1 bus=80548585008497.1.2.3 conn=delta kv=13.8
~ wdg=2 bus=80548585272142.1.2.3.0 conn=wye kv=0.38

new transformer.UNTRMT_5272152 phases=3 windings=2 %r=1.25 xhl=4.32 kva=300.0
~ wdg=1 bus=80549765008497.1.2.3 conn=delta kv=13.8
~ wdg=2 bus=80549765272152.1.2.3.0 conn=wye kv=0.38

new transformer.UNTRMT_5272153 phases=3 windings=2 %r=1.39 xhl=3.21 kva=150.0
~ wdg=1 bus=80549875008497.1.2.3 conn=delta kv=13.8
~ wdg=2 bus=80549875272153.1.2.3.0 conn=wye kv=0.38

new transformer.UNTRMT_5272154 phases=3 windings=2 %r=1.46 xhl=3.18 kva=112.0
~ wdg=1 bus=80549885008497.1.2.3 conn=delta kv=13.8
~ wdg=2 bus=80549885272154.1.2.3.0 conn=wye kv=0.38

new transformer.UNTRMT_5272158 phases=3 windings=2 %r=1.55 xhl=3.14 kva=75.0
~ wdg=1 bus=80550215008497.1.2.3 conn=delta kv=13.8
~ wdg=2 bus=80550215272158.1.2.3.0 conn=wye kv=0.38

new transformer.UNTRMT_5272206 phases=3 windings=2 %r=1.39 xhl=3.21 kva=150.0
~ wdg=1 bus=80541405008497.1.2.3 conn=delta kv=13.8
~ wdg=2 bus=80541405272206.1.2.3.0 conn=wye kv=0.38

new transformer.UNTRMT_5272212 phases=3 windings=2 %r=1.46 xhl=3.18 kva=112.0
~ wdg=1 bus=80545505008497.1.2.3 conn=delta kv=13.8
~ wdg=2 bus=80545505272212.1.2.3.0 conn=wye kv=0.38

new transformer.UNTRMT_5272213 phases=3 windings=2 %r=1.39 xhl=3.21 kva=150.0
~ wdg=1 bus=80545535008497.1.2.3 conn=delta kv=13.8
~ wdg=2 bus=80545535272213.1.2.3.0 conn=wye kv=0.38

new transformer.UNTRMT_5272214 phases=3 windings=2 %r=1.46 xhl=3.18 kva=112.0
~ wdg=1 bus=80545025008497.1.2.3 conn=delta kv=13.8
~ wdg=2 bus=80545025272214.1.2.3.0 conn=wye kv=0.38

new transformer.UNTRMT_5272215 phases=3 windings=2 %r=1.46 xhl=3.18 kva=112.0
~ wdg=1 bus=80544335008497.1.2.3 conn=delta kv=13.8
~ wdg=2 bus=80544335272215.1.2.3.0 conn=wye kv=0.38

new transformer.UNTRMT_5272216 phases=3 windings=2 %r=1.78 xhl=3.01 kva=30.0
~ wdg=1 bus=80544395008497.1.2.3 conn=delta kv=13.8
~ wdg=2 bus=80544395272216.1.2.3.0 conn=wye kv=0.38

new transformer.UNTRMT_5272217 phases=3 windings=2 %r=1.55 xhl=3.14 kva=75.0
~ wdg=1 bus=80544535008497.1.2.3 conn=delta kv=13.8
~ wdg=2 bus=80544535272217.1.2.3.0 conn=wye kv=0.38

new transformer.UNTRMT_5272220 phases=3 windings=2 %r=1.78 xhl=3.01 kva=30.0
~ wdg=1 bus=80544845008497.1.2.3 conn=delta kv=13.8
~ wdg=2 bus=80544845272220.1.2.3.0 conn=wye kv=0.38

new transformer.UNTRMT_5272228 phases=3 windings=2 %r=1.46 xhl=3.18 kva=112.0
~ wdg=1 bus=80546945008497.1.2.3 conn=delta kv=13.8
~ wdg=2 bus=80546945272228.1.2.3.0 conn=wye kv=0.38

new transformer.UNTRMT_5272229 phases=3 windings=2 %r=1.46 xhl=3.18 kva=112.0
~ wdg=1 bus=80547075008497.1.2.3 conn=delta kv=13.8
~ wdg=2 bus=80547075272229.1.2.3.0 conn=wye kv=0.38

new transformer.UNTRMT_5272230 phases=3 windings=2 %r=1.46 xhl=3.18 kva=112.0
~ wdg=1 bus=80547455008497.1.2.3 conn=delta kv=13.8
~ wdg=2 bus=80547455272230.1.2.3.0 conn=wye kv=0.38

new transformer.UNTRMT_5272231 phases=3 windings=2 %r=1.46 xhl=3.18 kva=112.0
~ wdg=1 bus=80547645008497.1.2.3 conn=delta kv=13.8
~ wdg=2 bus=80547645272231.1.2.3.0 conn=wye kv=0.38

new transformer.UNTRMT_5272232 phases=3 windings=2 %r=1.46 xhl=3.18 kva=112.0
~ wdg=1 bus=80546045008497.1.2.3 conn=delta kv=13.8
~ wdg=2 bus=80546045272232.1.2.3.0 conn=wye kv=0.38

new transformer.UNTRMT_5272233 phases=3 windings=2 %r=1.55 xhl=3.14 kva=75.0
~ wdg=1 bus=80546055008497.1.2.3 conn=delta kv=13.8
~ wdg=2 bus=80546055272233.1.2.3.0 conn=wye kv=0.38

new transformer.UNTRMT_5272234 phases=3 windings=2 %r=1.55 xhl=3.14 kva=75.0
~ wdg=1 bus=80546115008497.1.2.3 conn=delta kv=13.8
~ wdg=2 bus=80546115272234.1.2.3.0 conn=wye kv=0.38

new transformer.UNTRMT_5272236 phases=3 windings=2 %r=1.55 xhl=3.14 kva=75.0
~ wdg=1 bus=80545115008497.1.2.3 conn=delta kv=13.8
~ wdg=2 bus=80545115272236.1.2.3.0 conn=wye kv=0.38

new transformer.UNTRMT_5272238 phases=3 windings=2 %r=1.46 xhl=3.18 kva=112.0
~ wdg=1 bus=80543245008497.1.2.3 conn=delta kv=13.8
~ wdg=2 bus=80543245272238.1.2.3.0 conn=wye kv=0.38

new transformer.UNTRMT_5272239 phases=3 windings=2 %r=1.46 xhl=3.18 kva=112.0
~ wdg=1 bus=80543305008497.1.2.3 conn=delta kv=13.8
~ wdg=2 bus=80543305272239.1.2.3.0 conn=wye kv=0.38

new transformer.UNTRMT_5272242 phases=3 windings=2 %r=1.46 xhl=3.18 kva=112.0
~ wdg=1 bus=80545405008497.1.2.3 conn=delta kv=13.8
~ wdg=2 bus=80545405272242.1.2.3.0 conn=wye kv=0.38

new transformer.UNTRMT_5272243 phases=3 windings=2 %r=1.55 xhl=3.14 kva=75.0
~ wdg=1 bus=80545595008497.1.2.3 conn=delta kv=13.8
~ wdg=2 bus=80545595272243.1.2.3.0 conn=wye kv=0.38

new transformer.UNTRMT_5272244 phases=3 windings=2 %r=1.46 xhl=3.18 kva=112.0
~ wdg=1 bus=80545855008497.1.2.3 conn=delta kv=13.8
~ wdg=2 bus=80545855272244.1.2.3.0 conn=wye kv=0.38

new transformer.UNTRMT_5272245 phases=3 windings=2 %r=1.46 xhl=3.18 kva=112.0
~ wdg=1 bus=80545925008497.1.2.3 conn=delta kv=13.8
~ wdg=2 bus=80545925272245.1.2.3.0 conn=wye kv=0.38

new transformer.UNTRMT_5272246 phases=3 windings=2 %r=1.46 xhl=3.18 kva=112.0
~ wdg=1 bus=80546225008497.1.2.3 conn=delta kv=13.8
~ wdg=2 bus=80546225272246.1.2.3.0 conn=wye kv=0.38

new transformer.UNTRMT_5272247 phases=3 windings=2 %r=1.46 xhl=3.18 kva=112.0
~ wdg=1 bus=80546255008497.1.2.3 conn=delta kv=13.8
~ wdg=2 bus=80546255272247.1.2.3.0 conn=wye kv=0.38

new transformer.UNTRMT_5272248 phases=3 windings=2 %r=1.68 xhl=3.07 kva=45.0
~ wdg=1 bus=80546345008497.1.2.3 conn=delta kv=13.8
~ wdg=2 bus=80546345272248.1.2.3.0 conn=wye kv=0.38

new transformer.UNTRMT_5272249 phases=3 windings=2 %r=1.55 xhl=3.14 kva=75.0
~ wdg=1 bus=80546505008497.1.2.3 conn=delta kv=13.8
~ wdg=2 bus=80546505272249.1.2.3.0 conn=wye kv=0.38

new transformer.UNTRMT_5272252 phases=3 windings=2 %r=1.68 xhl=3.07 kva=45.0
~ wdg=1 bus=80540925008497.1.2.3 conn=delta kv=13.8
~ wdg=2 bus=80540925272252.1.2.3.0 conn=wye kv=0.38

new transformer.UNTRMT_5272253 phases=3 windings=2 %r=1.68 xhl=3.07 kva=45.0
~ wdg=1 bus=80541005008497.1.2.3 conn=delta kv=13.8
~ wdg=2 bus=80541005272253.1.2.3.0 conn=wye kv=0.38

new transformer.UNTRMT_5272254 phases=3 windings=2 %r=1.55 xhl=3.14 kva=75.0
~ wdg=1 bus=80541155008497.1.2.3 conn=delta kv=13.8
~ wdg=2 bus=80541155272254.1.2.3.0 conn=wye kv=0.38

new transformer.UNTRMT_5272255 phases=3 windings=2 %r=1.68 xhl=3.07 kva=45.0
~ wdg=1 bus=80541595008497.1.2.3 conn=delta kv=13.8
~ wdg=2 bus=80541595272255.1.2.3.0 conn=wye kv=0.38

new transformer.UNTRMT_5272256 phases=3 windings=2 %r=1.68 xhl=3.07 kva=45.0
~ wdg=1 bus=80541555008497.1.2.3 conn=delta kv=13.8
~ wdg=2 bus=80541555272256.1.2.3.0 conn=wye kv=0.38

new transformer.UNTRMT_5272259 phases=3 windings=2 %r=1.46 xhl=3.18 kva=112.0
~ wdg=1 bus=80547985008497.1.2.3 conn=delta kv=13.8
~ wdg=2 bus=80547985272259.1.2.3.0 conn=wye kv=0.38

new transformer.UNTRMT_5272272 phases=3 windings=2 %r=1.39 xhl=3.21 kva=150.0
~ wdg=1 bus=80548565008497.1.2.3 conn=delta kv=13.8
~ wdg=2 bus=80548565272272.1.2.3.0 conn=wye kv=0.38

new transformer.UNTRMT_5272273 phases=3 windings=2 %r=1.55 xhl=3.14 kva=75.0
~ wdg=1 bus=80548545008497.1.2.3 conn=delta kv=13.8
~ wdg=2 bus=80548545272273.1.2.3.0 conn=wye kv=0.38

new transformer.UNTRMT_5272274 phases=3 windings=2 %r=1.68 xhl=3.07 kva=45.0
~ wdg=1 bus=80548595008497.1.2.3 conn=delta kv=13.8
~ wdg=2 bus=80548595272274.1.2.3.0 conn=wye kv=0.38

new transformer.UNTRMT_5272284 phases=3 windings=2 %r=1.46 xhl=3.18 kva=112.0
~ wdg=1 bus=80549805008497.1.2.3 conn=delta kv=13.8
~ wdg=2 bus=80549805272284.1.2.3.0 conn=wye kv=0.38

new transformer.UNTRMT_5298932 phases=3 windings=2 %r=1.39 xhl=3.21 kva=150.0
~ wdg=1 bus=83083865008497.1.2.3 conn=delta kv=13.8
~ wdg=2 bus=83083865298932.1.2.3.0 conn=wye kv=0.38

new transformer.UNTRMT_5306427 phases=3 windings=2 %r=1.46 xhl=3.18 kva=112.0
~ wdg=1 bus=83478995008497.1.2.3 conn=delta kv=13.8
~ wdg=2 bus=83478995306427.1.2.3.0 conn=wye kv=0.38

new transformer.UNTRMT_5521321 phases=3 windings=2 %r=1.46 xhl=3.18 kva=112.0
~ wdg=1 bus=89229005008497.1.2.3 conn=delta kv=13.8
~ wdg=2 bus=89229005521321.1.2.3.0 conn=wye kv=0.38

new transformer.UNTRMT_5676449 phases=3 windings=2 %r=1.46 xhl=3.18 kva=75.0
~ wdg=1 bus=94031725008497.1.2.3 conn=delta kv=13.8
~ wdg=2 bus=94031725676449.1.2.3.0 conn=wye kv=0.38

! 6. Linhas de Baixa Tensao (BT)
new line.52880517 phases=3 bus1=80479895271312.1.2.3.0 bus2=80479885271312.1.2.3.0 r1=0.975 x1=0.47 length=0.031762 units=km normamps=152.0
new line.52880523 phases=3 bus1=80480905271312.1.2.3.0 bus2=80480895271312.1.2.3.0 r1=0.975 x1=0.47 length=0.030924 units=km normamps=152.0
new line.52880532 phases=3 bus1=80480965271312.1.2.3.0 bus2=80479905271312.1.2.3.0 r1=0.975 x1=0.47 length=0.023539 units=km normamps=152.0
new line.52880533 phases=3 bus1=80481065271313.1.2.3.0 bus2=80481055271313.1.2.3.0 r1=0.975 x1=0.47 length=0.022969 units=km normamps=152.0
new line.52880538 phases=3 bus1=80483045271313.1.2.3.0 bus2=80479855271313.1.2.3.0 r1=0.975 x1=0.47 length=0.020477 units=km normamps=152.0
new line.52880543 phases=3 bus1=80480985271313.1.2.3.0 bus2=80480995271313.1.2.3.0 r1=0.613 x1=0.45 length=0.02629 units=km normamps=203.0
new line.52880544 phases=3 bus1=80480995271313.1.2.3.0 bus2=80481005271313.1.2.3.0 r1=0.613 x1=0.45 length=0.031848 units=km normamps=203.0
new line.52889237 phases=3 bus1=80541405272206.1.2.3.0 bus2=80541385272206.1.2.3.0 r1=0.506 x1=0.1 length=0.041211 units=km normamps=157.0
new line.52889239 phases=3 bus1=80541425272206.1.2.3.0 bus2=80541415272206.1.2.3.0 r1=0.506 x1=0.1 length=0.015098 units=km normamps=157.0
new line.52889355 phases=3 bus1=80545455272212.1.2.3.0 bus2=80545465272212.1.2.3.0 r1=0.613 x1=0.45 length=0.015363 units=km normamps=203.0
new line.52889357 phases=3 bus1=80545475272212.1.2.3.0 bus2=94031325272212.1.2.3.0 r1=0.613 x1=0.45 length=0.014043 units=km normamps=203.0
new line.52889361 phases=3 bus1=80545545272212.1.2.3.0 bus2=80545555272212.1.2.3.0 r1=0.613 x1=0.45 length=0.030364 units=km normamps=203.0
new line.52889377 phases=3 bus1=80545035272214.1.2.3.0 bus2=80545025272214.1.2.3.0 r1=0.613 x1=0.45 length=0.031917 units=km normamps=203.0
new line.52889383 phases=3 bus1=80544475272214.1.2.3.0 bus2=80544465272214.1.2.3.0 r1=0.991 x1=0.1 length=0.047651 units=km normamps=100.0
new line.52889408 phases=3 bus1=80544375272217.1.2.3.0 bus2=80544585272217.1.2.3.0 r1=0.975 x1=0.47 length=0.019637 units=km normamps=152.0
new line.52889413 phases=3 bus1=80549855272217.1.2.3.0 bus2=80549865272217.1.2.3.0 r1=0.975 x1=0.47 length=0.021174 units=km normamps=152.0
new line.52889558 phases=3 bus1=80546835272228.1.2.3.0 bus2=94777665272228.1.2.3.0 r1=0.991 x1=0.1 length=0.004129 units=km normamps=100.0
new line.52889563 phases=3 bus1=80546925272228.1.2.3.0 bus2=80546935272228.1.2.3.0 r1=0.975 x1=0.47 length=0.037543 units=km normamps=152.0
new line.52889565 phases=3 bus1=80546945272228.1.2.3.0 bus2=80544575272228.1.2.3.0 r1=0.975 x1=0.47 length=0.024843 units=km normamps=152.0
new line.52889572 phases=3 bus1=80547075272229.1.2.3.0 bus2=80547065272229.1.2.3.0 r1=0.506 x1=0.1 length=0.018284 units=km normamps=157.0
new line.52889587 phases=3 bus1=80547505272230.1.2.3.0 bus2=80547495272230.1.2.3.0 r1=0.975 x1=0.47 length=0.029724 units=km normamps=152.0
new line.52889589 phases=3 bus1=80547465272230.1.2.3.0 bus2=80547525272230.1.2.3.0 r1=0.613 x1=0.45 length=0.031061 units=km normamps=203.0
new line.52889591 phases=3 bus1=80547555272230.1.2.3.0 bus2=80547405272230.1.2.3.0 r1=0.975 x1=0.47 length=0.031291 units=km normamps=152.0
new line.52889596 phases=1 bus1=80547545272230.1.0 bus2=80547535272230.1.0 r1=0.975 x1=0.47 length=0.031085 units=km normamps=152.0
new line.52889600 phases=3 bus1=80547615272231.1.2.3.0 bus2=80547635272231.1.2.3.0 r1=0.613 x1=0.45 length=0.025806 units=km normamps=203.0
new line.52889614 phases=3 bus1=80546055272233.1.2.3.0 bus2=80546035272233.1.2.3.0 r1=0.613 x1=0.45 length=0.027438 units=km normamps=203.0
new line.52889619 phases=1 bus1=80546365272233.1.0 bus2=80546375272233.1.0 r1=0.613 x1=0.45 length=0.031221 units=km normamps=203.0
new line.52889624 phases=3 bus1=80546425272233.1.2.3.0 bus2=80546405272233.1.2.3.0 r1=0.613 x1=0.45 length=0.030932 units=km normamps=203.0
new line.52889650 phases=3 bus1=80546525272236.1.2.3.0 bus2=96914505272236.1.2.3.0 r1=0.613 x1=0.45 length=0.004822 units=km normamps=203.0
new line.52889657 phases=3 bus1=80544245272236.1.2.3.0 bus2=80544255272236.1.2.3.0 r1=1.551 x1=0.49 length=0.019054 units=km normamps=114.0
new line.52889680 phases=3 bus1=80543235272238.1.2.3.0 bus2=80543245272238.1.2.3.0 r1=0.506 x1=0.1 length=0.026841 units=km normamps=157.0
new line.52889683 phases=3 bus1=80543265272238.1.2.3.0 bus2=80543275272238.1.2.3.0 r1=0.506 x1=0.1 length=0.026017 units=km normamps=157.0
new line.52889685 phases=3 bus1=80543275272239.1.2.3.0 bus2=80543295272239.1.2.3.0 r1=0.506 x1=0.1 length=0.032737 units=km normamps=157.0
new line.52889707 phases=3 bus1=80545365272242.1.2.3.0 bus2=80545355272242.1.2.3.0 r1=0.975 x1=0.47 length=0.018887 units=km normamps=152.0
new line.52889734 phases=3 bus1=80541565272256.1.2.3.0 bus2=80541555272256.1.2.3.0 r1=1.551 x1=0.49 length=0.008244 units=km normamps=114.0
new line.52889738 phases=3 bus1=80541675272256.1.2.3.0 bus2=80541555272256.1.2.3.0 r1=0.613 x1=0.45 length=0.027816 units=km normamps=203.0
new line.52889739 phases=3 bus1=80543205272256.1.2.3.0 bus2=80543195272256.1.2.3.0 r1=0.975 x1=0.47 length=0.024701 units=km normamps=152.0
new line.52889740 phases=3 bus1=80543195272256.1.2.3.0 bus2=80541575272256.1.2.3.0 r1=0.975 x1=0.47 length=0.028922 units=km normamps=152.0
new line.52889759 phases=3 bus1=80545735272245.1.2.3.0 bus2=80545715272245.1.2.3.0 r1=0.975 x1=0.47 length=0.028878 units=km normamps=152.0
new line.52889767 phases=1 bus1=80545805272245.1.0 bus2=80545815272245.1.0 r1=0.975 x1=0.47 length=0.022704 units=km normamps=152.0
new line.52889774 phases=3 bus1=80545885272245.1.2.3.0 bus2=80545895272245.1.2.3.0 r1=0.975 x1=0.47 length=0.029542 units=km normamps=152.0
new line.52889776 phases=3 bus1=80545905272245.1.2.3.0 bus2=80545915272245.1.2.3.0 r1=0.613 x1=0.45 length=0.024913 units=km normamps=203.0
new line.52889782 phases=3 bus1=80547205272246.1.2.3.0 bus2=80547195272246.1.2.3.0 r1=0.975 x1=0.47 length=0.028786 units=km normamps=152.0
new line.52889787 phases=3 bus1=80547245272246.1.2.3.0 bus2=80547255272246.1.2.3.0 r1=0.975 x1=0.47 length=0.029777 units=km normamps=152.0
new line.52889793 phases=3 bus1=80544905272246.1.2.3.0 bus2=80544515272246.1.2.3.0 r1=0.975 x1=0.47 length=0.045295 units=km normamps=152.0
new line.52889796 phases=3 bus1=80546125272246.1.2.3.0 bus2=80546135272246.1.2.3.0 r1=0.506 x1=0.1 length=0.029511 units=km normamps=157.0
new line.52889804 phases=3 bus1=80546995272246.1.2.3.0 bus2=80547005272246.1.2.3.0 r1=0.506 x1=0.1 length=0.023606 units=km normamps=157.0
new line.52889822 phases=3 bus1=80546485272249.1.2.3.0 bus2=80546505272249.1.2.3.0 r1=0.975 x1=0.47 length=0.018109 units=km normamps=152.0
new line.52889857 phases=3 bus1=80541685272253.1.2.3.0 bus2=80541005272253.1.2.3.0 r1=0.975 x1=0.47 length=0.045068 units=km normamps=152.0
new line.52889858 phases=3 bus1=80541695272253.1.2.3.0 bus2=80541005272253.1.2.3.0 r1=0.975 x1=0.47 length=0.013735 units=km normamps=152.0
new line.52889859 phases=3 bus1=80541135272254.1.2.3.0 bus2=80541125272254.1.2.3.0 r1=0.506 x1=0.1 length=0.024654 units=km normamps=157.0
new line.52889862 phases=3 bus1=80541165272254.1.2.3.0 bus2=80541155272254.1.2.3.0 r1=0.506 x1=0.1 length=0.03059 units=km normamps=157.0
new line.52890025 phases=3 bus1=80546905272284.1.2.3.0 bus2=80546915272284.1.2.3.0 r1=0.506 x1=0.1 length=0.028433 units=km normamps=157.0
new line.52890031 phases=3 bus1=80549815272284.1.2.3.0 bus2=80549825272284.1.2.3.0 r1=0.991 x1=0.1 length=0.036867 units=km normamps=100.0
new line.52890034 phases=3 bus1=80549825272284.1.2.3.0 bus2=80549835272284.1.2.3.0 r1=0.991 x1=0.1 length=0.028686 units=km normamps=100.0
new line.54643002 phases=3 bus1=90204785272236.1.2.3.0 bus2=80546525272236.1.2.3.0 r1=0.613 x1=0.45 length=0.017806 units=km normamps=203.0
new line.55129782 phases=3 bus1=94031325272212.1.2.3.0 bus2=80545505272212.1.2.3.0 r1=0.613 x1=0.45 length=0.016651 units=km normamps=203.0
new line.55259000 phases=3 bus1=95001235272239.1.2.3.0 bus2=80543335272239.1.2.3.0 r1=0.991 x1=0.1 length=0.007129 units=km normamps=100.0
new line.52880513 phases=3 bus1=80480875271312.1.2.3.0 bus2=80481055271312.1.2.3.0 r1=0.975 x1=0.47 length=0.025417 units=km normamps=152.0
new line.52880514 phases=3 bus1=80480875271312.1.2.3.0 bus2=80481095271312.1.2.3.0 r1=0.975 x1=0.47 length=0.004573 units=km normamps=152.0
new line.52880516 phases=3 bus1=80479885271312.1.2.3.0 bus2=80479875271312.1.2.3.0 r1=0.975 x1=0.47 length=0.036862 units=km normamps=152.0
new line.52880518 phases=3 bus1=80479905271312.1.2.3.0 bus2=80479895271312.1.2.3.0 r1=0.975 x1=0.47 length=0.011061 units=km normamps=152.0
new line.52880519 phases=3 bus1=80480845271312.1.2.3.0 bus2=80480855271312.1.2.3.0 r1=0.975 x1=0.47 length=0.02749 units=km normamps=152.0
new line.52880522 phases=3 bus1=80480865271312.1.2.3.0 bus2=80480885271312.1.2.3.0 r1=0.975 x1=0.47 length=0.037104 units=km normamps=152.0
new line.52880524 phases=3 bus1=80480885271312.1.2.3.0 bus2=80480915271312.1.2.3.0 r1=0.613 x1=0.45 length=0.034588 units=km normamps=203.0
new line.52880526 phases=3 bus1=80480935271312.1.2.3.0 bus2=80480905271312.1.2.3.0 r1=0.975 x1=0.47 length=0.033729 units=km normamps=152.0
new line.52880527 phases=3 bus1=80480925271312.1.2.3.0 bus2=80480945271312.1.2.3.0 r1=0.975 x1=0.47 length=0.024732 units=km normamps=152.0
new line.52880529 phases=3 bus1=80480945271312.1.2.3.0 bus2=80480965271312.1.2.3.0 r1=0.975 x1=0.47 length=0.026655 units=km normamps=152.0
new line.52880536 phases=3 bus1=80481085271313.1.2.3.0 bus2=80481025271313.1.2.3.0 r1=0.975 x1=0.47 length=0.035779 units=km normamps=152.0
new line.52880539 phases=3 bus1=80479835271313.1.2.3.0 bus2=80479845271313.1.2.3.0 r1=0.975 x1=0.47 length=0.015023 units=km normamps=152.0
new line.52880541 phases=3 bus1=80479865271313.1.2.3.0 bus2=80480975271313.1.2.3.0 r1=0.613 x1=0.45 length=0.043972 units=km normamps=203.0
new line.52880545 phases=3 bus1=80481015271313.1.2.3.0 bus2=80481005271313.1.2.3.0 r1=0.613 x1=0.45 length=0.022401 units=km normamps=203.0
new line.52880547 phases=3 bus1=80481025271313.1.2.3.0 bus2=80481035271313.1.2.3.0 r1=0.613 x1=0.45 length=0.027435 units=km normamps=203.0
new line.52889234 phases=3 bus1=80541365272206.1.2.3.0 bus2=80541355272206.1.2.3.0 r1=0.506 x1=0.1 length=0.013719 units=km normamps=157.0
new line.52889241 phases=3 bus1=80541445272206.1.2.3.0 bus2=80541435272206.1.2.3.0 r1=0.506 x1=0.1 length=0.039342 units=km normamps=157.0
new line.52889243 phases=3 bus1=80541465272206.1.2.3.0 bus2=80541485272206.1.2.3.0 r1=0.975 x1=0.47 length=0.034978 units=km normamps=152.0
new line.52889247 phases=3 bus1=80541495272206.1.2.3.0 bus2=80541475272206.1.2.3.0 r1=0.991 x1=0.1 length=0.023318 units=km normamps=100.0
new line.52889248 phases=3 bus1=80541505272206.1.2.3.0 bus2=80541495272206.1.2.3.0 r1=0.991 x1=0.1 length=0.030196 units=km normamps=100.0
new line.52889250 phases=3 bus1=80541525272206.1.2.3.0 bus2=80541515272206.1.2.3.0 r1=0.991 x1=0.1 length=0.023003 units=km normamps=100.0
new line.52889252 phases=3 bus1=80542945272206.1.2.3.0 bus2=80542955272206.1.2.3.0 r1=0.991 x1=0.1 length=0.018138 units=km normamps=100.0
new line.52889354 phases=3 bus1=80545445272212.1.2.3.0 bus2=80545455272212.1.2.3.0 r1=0.613 x1=0.45 length=0.01913 units=km normamps=203.0
new line.52889359 phases=3 bus1=80545515272212.1.2.3.0 bus2=80545525272212.1.2.3.0 r1=0.613 x1=0.45 length=0.008588 units=km normamps=203.0
new line.52889360 phases=3 bus1=80545525272212.1.2.3.0 bus2=80545545272212.1.2.3.0 r1=0.613 x1=0.45 length=0.019648 units=km normamps=203.0
new line.52889365 phases=3 bus1=80547735272212.1.2.3.0 bus2=80544635272212.1.2.3.0 r1=0.975 x1=0.47 length=0.029216 units=km normamps=152.0
new line.52889366 phases=3 bus1=80547735272212.1.2.3.0 bus2=80545565272212.1.2.3.0 r1=0.975 x1=0.47 length=0.014242 units=km normamps=152.0
new line.52889370 phases=3 bus1=80544945272214.1.2.3.0 bus2=80544935272214.1.2.3.0 r1=0.613 x1=0.45 length=0.016741 units=km normamps=203.0
new line.52889371 phases=3 bus1=80544965272214.1.2.3.0 bus2=80544945272214.1.2.3.0 r1=0.613 x1=0.45 length=0.013585 units=km normamps=203.0
new line.52889380 phases=3 bus1=80544425272214.1.2.3.0 bus2=80544995272214.1.2.3.0 r1=0.975 x1=0.47 length=0.011375 units=km normamps=152.0
new line.52889384 phases=3 bus1=80544485272214.1.2.3.0 bus2=80544475272214.1.2.3.0 r1=1.551 x1=0.49 length=0.015261 units=km normamps=114.0
new line.52889387 phases=3 bus1=80544295272215.1.2.3.0 bus2=80544285272215.1.2.3.0 r1=0.613 x1=0.45 length=0.026035 units=km normamps=203.0
new line.52889389 phases=3 bus1=80544335272215.1.2.3.0 bus2=80544315272215.1.2.3.0 r1=0.613 x1=0.45 length=0.014641 units=km normamps=203.0
new line.52889390 phases=3 bus1=80544345272215.1.2.3.0 bus2=80544335272215.1.2.3.0 r1=0.613 x1=0.45 length=0.02607 units=km normamps=203.0
new line.52889391 phases=3 bus1=80544355272215.1.2.3.0 bus2=80544345272215.1.2.3.0 r1=0.613 x1=0.45 length=0.009146 units=km normamps=203.0
...